2025年2月26日15:04:47
到工位，开始干模型

2025年2月26日16:54:17
现在有潜艇在水下的极限纵倾角和横倾角，我是不是可以按照这个，算一下潜艇在应急状态下的破冰后的极限纵倾角和横倾角？

2025年2月26日21:32:17
为了建立一个小小的立方体搞到现在。。。。
我现在的想法：
1）在autocad中建立冰场的模型（一个立方体，细节还需要改进）
2）导入benchwork中，画出网格，这样有限元的冰场就做好了
3）再把文件导入LS-DYNA，进行有限元分析

没想到一个小小的3d建模给我搞了一晚上，太笨了，脑子很久不用，真的不行

2025年2月26日21:36:31
——>明日计划
1）早上画出三篇硕士论文的中内外研究的思维导图，包括小标题，要开始写文献综述了
2）把模型网格化
不能再浪费时间了，6个月后就开题了！
